nrt/data/DoubleInertialGrid/Test.iidm
<?xml version="1.0" encoding="UTF-8"?>
<!--
    Copyright (c) 2024, RTE (http://www.rte-france.com)
    See AUTHORS.txt
    All rights reserved.
    This Source Code Form is subject to the terms of the Mozilla Public
    License, v. 2.0. If a copy of the MPL was not distributed with this
    file, you can obtain one at http://mozilla.org/MPL/2.0/.
    SPDX-License-Identifier: MPL-2.0

    This file is part of Dynawo, an hybrid C++/Modelica open source time domain
    simulation tool for power systems.
-->
<iidm:network xmlns:iidm="http://www.itesla_project.eu/schema/iidm/1_0" id="ieee14bus" caseDate="2017-06-09T10:14:24.146+02:00" forecastDistance="0" sourceFormat="CIM1">
    <iidm:substation id="SUB_IG1" name="SUB_IG1">
        <iidm:voltageLevel id="VL_IG1" name="VL_IG1" nominalV="400" topologyKind="BUS_BREAKER">
            <iidm:busBreakerTopology>
                <iidm:bus id="BUS_IG1" v="400" angle="0"/>
            </iidm:busBreakerTopology>
            <iidm:generator id="IG1" name="IG1" energySource="OTHER" minP="-9999.0" maxP="9999.0" voltageRegulatorOn="true" targetP="213.56" targetV="400" targetQ="225" bus="BUS_IG1" connectableBus="BUS_IG1" p="213.56" q="225">
                <iidm:minMaxReactiveLimits minQ="-999.0" maxQ="999.0"/>
            </iidm:generator>
            <iidm:load id="LOAD_PQ" name="LOAD_PQ" loadType="UNDEFINED" p0="0" q0="0" bus="BUS_IG1" connectableBus="BUS_IG1" p="0.0" q="0.0"/>
        </iidm:voltageLevel>
    </iidm:substation>
    <iidm:substation id="SUB_IG2" name="SUB_IG2">
        <iidm:voltageLevel id="VL_IG2" name="VL_IG2" nominalV="400" topologyKind="BUS_BREAKER">
            <iidm:busBreakerTopology>
                <iidm:bus id="BUS_IG2" v="381.84" angle="1.7762"/>
            </iidm:busBreakerTopology>
            <iidm:generator id="IG2" name="IG2" energySource="OTHER" minP="-9999.0" maxP="9999.0" voltageRegulatorOn="true" targetP="330" targetV="381.84" targetQ="0" bus="BUS_IG2" connectableBus="BUS_IG2" p="330" q="0">
                <iidm:minMaxReactiveLimits minQ="-999.0" maxQ="999.0"/>
            </iidm:generator>
        </iidm:voltageLevel>
    </iidm:substation>
    <iidm:substation id="SUB_3" name="SUB_3">
        <iidm:voltageLevel id="VL_3" name="VL_3" nominalV="400" topologyKind="BUS_BREAKER">
            <iidm:busBreakerTopology>
                <iidm:bus id="BUS_3" v="380.8" angle="-2.35"/>
            </iidm:busBreakerTopology>
        </iidm:voltageLevel>
    </iidm:substation>
    <iidm:substation id="SUB_L" name="SUB_L">
        <iidm:voltageLevel id="VL_L" name="VL_L" nominalV="400" topologyKind="BUS_BREAKER">
            <iidm:busBreakerTopology>
                <iidm:bus id="BUS_L" v="334" angle="-20.91"/>
            </iidm:busBreakerTopology>
            <iidm:load id="LOAD_ZIP" name="LOAD_ZIP" loadType="UNDEFINED" p0="500" q0="0" bus="BUS_L" connectableBus="BUS_L" p="500.0" q="0.0"/>
        </iidm:voltageLevel>
    </iidm:substation>
    <iidm:line id="LINE1" name="LINE1" r="2.4" x="32.4" g1="0.0" b1="0.0" g2="0.0" b2="0.0" bus1="BUS_IG1" connectableBus1="BUS_IG1" voltageLevelId1="VL_IG1" bus2="BUS_3" connectableBus2="BUS_3" voltageLevelId2="VL_3" p1="213.56" q1="225.15" p2="-212.11" q2="-205.65"/>
    <iidm:line id="LINE2" name="LINE2" r="2.4" x="32.4" g1="0.0" b1="0.0" g2="0.0" b2="0.0" bus1="BUS_IG2" connectableBus1="BUS_IG2" voltageLevelId1="VL_IG2" bus2="BUS_3" connectableBus2="BUS_3" voltageLevelId2="VL_3" p1="330" q1="0" p2="-328" q2="-24.19"/>
    <iidm:line id="LINE3" name="LINE3" r="18" x="81" g1="0.0" b1="0.0" g2="0.0" b2="0.0" bus1="BUS_L" connectableBus1="BUS_L" voltageLevelId1="VL_L" bus2="BUS_3" connectableBus2="BUS_3" voltageLevelId2="VL_3" p1="-500" q1="0" p2="540.32" q2="181.45"/>
</iidm:network>
